C1F1H1_0_5e3e12188eab11f1fa73ac55-1-3-0-0_None index: 0
 OpenBabel03172011553D

  3  2  0  0  0  0  0  0  0  0999 V2000
   -1.9339    0.8875   -0.6524 F   0  0  0  0  0  0  0  0  0  0  0  0
   -1.2279    0.1251    0.4279 C   0  0  0  0  0  0  0  0  0  0  0  0
   -1.6167    0.6653    1.3081 H   0  0  0  0  0  0  0  0  0  0  0  0
  1  2  1  0  0  0  0
  2  3  1  0  0  0  0
M  RAD  1   2   3
M  END
$$$$
C2F1H1Li1O2_-1_5e3e12188eab11f1fa73ac55_-9108.239162951795 index: 1
 OpenBabel03172011553D

  7  7  0  0  0  0  0  0  0  0999 V2000
   -1.9339    0.8875   -0.6524 F   0  0  0  0  0  0  0  0  0  0  0  0
    0.1068    0.6397    0.3471 O   0  3  1  0  0  0  0  0  0  0  0  0
    2.1160    0.5659   -0.4509 O   0  0  0  0  0  0  0  0  0  0  0  0
   -1.2279    0.1251    0.4279 C   0  0  0  0  0  0  0  0  0  0  0  0
    1.0767   -0.1207   -0.3838 C   0  0  0  0  0  0  0  0  0  0  0  0
   -1.6167    0.6653    1.3081 H   0  0  0  0  0  0  0  0  0  0  0  0
    1.3086    2.0819    0.3170 Li  0  5  0  0  0  0  0  0  0  0  0  0
  1  4  1  0  0  0  0
  2  4  1  6  0  0  0
  2  7  1  0  0  0  0
  3  5  1  0  0  0  0
  3  7  1  0  0  0  0
  4  6  1  0  0  0  0
  5  2  1  0  0  0  0
M  RAD  2   4   2   5   3
M  CHG  2   2   1   7  -1
M  ZCH  2   2   0   7   0
M  HYD  2   4   0   5   0
M  ZBO  1   3   0
M  END
$$$$
C1Li1O2_-1_5e3e12188eab11f1fa73ac55-1-3-1--1_None index: 2
 OpenBabel03172011553D

  4  4  0  0  0  0  0  0  0  0999 V2000
    0.1068    0.6397    0.3471 O   0  0  0  0  0  0  0  0  0  0  0  0
    2.1160    0.5659   -0.4509 O   0  3  0  0  0  0  0  0  0  0  0  0
    1.0767   -0.1207   -0.3838 C   0  0  0  0  0  0  0  0  0  0  0  0
    1.3086    2.0819    0.3170 Li  0  5  0  0  0  0  0  0  0  0  0  0
  2  3  1  0  0  0  0
  2  4  1  0  0  0  0
  3  1  1  0  0  0  0
  4  1  1  0  0  0  0
M  RAD  2   2   2   3   3
M  CHG  2   2   1   4  -1
M  ZCH  2   2   0   4   0
M  HYD  2   2   0   3   0
M  ZBO  1   2   0
M  END
$$$$
C1F1H1_-1_5e3e12188eab11f1fa73ac55-1-3-0--1_None index: 3
 OpenBabel03172011553D

  3  2  0  0  0  0  0  0  0  0999 V2000
   -1.9339    0.8875   -0.6524 F   0  0  0  0  0  0  0  0  0  0  0  0
   -1.2279    0.1251    0.4279 C   0  0  0  0  0  0  0  0  0  0  0  0
   -1.6167    0.6653    1.3081 H   0  0  0  0  0  0  0  0  0  0  0  0
  1  2  1  0  0  0  0
  2  3  1  0  0  0  0
M  RAD  1   2   3
M  END
$$$$
C1Li1O2_0_5e3e12188eab11f1fa73ac55-1-3-1-0_None index: 4
 OpenBabel03172011553D

  4  4  0  0  0  0  0  0  0  0999 V2000
    0.1068    0.6397    0.3471 O   0  0  0  0  0  0  0  0  0  0  0  0
    2.1160    0.5659   -0.4509 O   0  3  0  0  0  0  0  0  0  0  0  0
    1.0767   -0.1207   -0.3838 C   0  0  0  0  0  0  0  0  0  0  0  0
    1.3086    2.0819    0.3170 Li  0  5  0  0  0  0  0  0  0  0  0  0
  2  3  1  0  0  0  0
  2  4  1  0  0  0  0
  3  1  1  0  0  0  0
  4  1  1  0  0  0  0
M  RAD  2   2   2   3   3
M  CHG  2   2   1   4  -1
M  ZCH  2   2   0   4   0
M  HYD  2   2   0   3   0
M  ZBO  1   2   0
M  END
$$$$
