EC  C1COC(=O)O1
 OpenBabel10281912183D

  6  6  0  0  0  0  0  0  0  0999 V2000
    0.2938   -1.2494    0.0142 O   0  0  0  0  0  0  0  0  0  0  0  0
   -0.7512   -0.4581    0.0690 C   0  0  0  0  0  0  0  0  0  0  0  0
    1.5279   -0.5231   -0.0831 C   0  0  0  0  0  0  0  0  0  0  0  0
   -1.8980   -0.6830    0.1536 O   0  0  0  0  0  0  0  0  0  0  0  0
   -0.2610    0.9193    0.0069 O   0  0  0  0  0  0  0  0  0  0  0  0
    1.0727    0.9009   -0.0656 C   0  0  0  0  0  0  0  0  0  0  0  0
  1  2  1  0  0  0  0
  2  4  2  0  0  0  0
  3  6  1  0  0  0  0
  3  1  1  0  0  0  0
  5  2  1  0  0  0  0
  6  5  1  0  0  0  0
M  END
$$$$
EC  C1COC(=O)O1
 OpenBabel10281912183D

  6  6  0  0  0  0  0  0  0  0999 V2000
    0.2938   -1.2494    0.0142 O   0  0  0  0  0  0  0  0  0  0  0  0
   -0.7512   -0.4581    0.0690 C   0  0  0  0  0  0  0  0  0  0  0  0
    1.5279   -0.5231   -0.0831 C   0  0  0  0  0  0  0  0  0  0  0  0
   -1.8980   -0.6830    0.1536 O   0  0  0  0  0  0  0  0  0  0  0  0
   -0.2610    0.9193    0.0069 O   0  0  0  0  0  0  0  0  0  0  0  0
    1.0727    0.9009   -0.0656 C   0  0  0  0  0  0  0  0  0  0  0  0
  1  2  1  0  0  0  0
  2  4  2  0  0  0  0
  3  6  1  0  0  0  0
  3  1  1  0  0  0  0
  5  2  1  0  0  0  0
  6  5  1  0  0  0  0
M  END
$$$$